feeders/9718_9718_1/9718_9718_1_Losses.Txt

LOSSES REPORT

Power Delivery Element Loss Report

Element                  kW Losses    % of Power   kvar Losses

"Line.13CF_1382"                              0.00000,      0.0     -7.10187E-005
"Line.13CF_1527"                              0.00000,      0.0     -7.10572E-005
"Line.13CF_1678"                              0.00000,      0.0     -7.04479E-005
"Line.13CF_1706"                              0.00000,      0.0     -7.04872E-005
"Line.13CF_1757"                              0.00000,      0.0     -0.000212602
"Line.13CF_1917"                              0.00000,      0.0     -7.10667E-005
"Line.13CF_364"                               0.00000,      0.0     -7.03836E-005
"Line.13CF_365"                               0.00000,      0.0     -7.03804E-005
"Line.13CS_1197"                              0.00000,      0.0     -0.000212585
"Line.13FR_367"                               0.00000,      0.0     -7.02542E-005
"Line.13FR_761"                               0.00000,      0.0     -7.05012E-005
"Line.19BP_370"                               0.00001,      0.0     -0.000204392
"Line.19CF_1034"                              0.00000,      0.0     -7.0918E-005
"Line.19CF_1067"                              0.00000,      0.0     -7.27198E-005
"Line.19CF_1069"                              0.00000,      0.0     -7.04126E-005
"Line.19CF_1070"                              0.00000,      0.0     -7.25074E-005
"Line.19CF_1084"                              0.00000,      0.0     -7.04258E-005
"Line.19CF_1098"                              0.00000,      0.0     -7.06819E-005
"Line.19CF_1123"                              0.00001,      0.0     -0.000207836
"Line.19CF_1208"                              0.00000,      0.0     -7.05471E-005
"Line.19CF_1275"                              0.00000,      0.0     -0.000212647
"Line.19CF_1312"                              0.00000,      0.0     -7.07878E-005
"Line.19CF_1335"                              0.00000,      0.0     -7.19877E-005
"Line.19CF_1353"                              0.00000,      0.0     -7.04112E-005
"Line.19CF_1394"                              0.00000,      0.0     -7.14618E-005
"Line.19CF_1413"                              0.00000,      0.0     -0.000212453
"Line.19CF_1522"                              0.00000,      0.0     -0.000212138
"Line.19CF_1650"                              0.00000,      0.0     -0.000217657
"Line.19CF_1703"                              0.00000,      0.0     -7.21079E-005
"Line.19CF_1704"                              0.00000,      0.0     -7.21283E-005
"Line.19CF_1825"                              0.00000,      0.0     -0.000212484
"Line.19CF_1847"                              0.00000,      0.0     -0.000216812
"Line.19CF_1848"                              0.00000,      0.0     -7.03663E-005
"Line.19CF_1907"                              0.00000,      0.0     -0.000213376
"Line.19CF_221"                               0.00000,      0.0     -7.10016E-005
"Line.19CF_251"                               0.00000,      0.0     -0.000142742
"Line.19CF_285"                               0.00000,      0.0     -7.21327E-005
"Line.19CF_286"                               0.00000,      0.0     -0.000212878
"Line.19CF_371"                               0.00000,      0.0     -0.000212171
"Line.19CF_800"                               0.00000,      0.0     -7.00993E-005
"Line.19CF_818"                               0.00000,      0.0     -7.19574E-005
"Line.19CF_855"                               0.00000,      0.0     -7.09963E-005
"Line.19CF_898"                               0.00000,      0.0     -7.11042E-005
"Line.19CF_934"                               0.00000,      0.0     -7.1003E-005
"Line.19CF_949"                               0.00000,      0.0     -0.000212349
"Line.19CF_970"                               0.00000,      0.0     -0.000212622
"Line.19CF_976"                               0.00000,      0.0     -0.000212172
"Line.19CF_9999"                              0.00000,      0.0     -0.000211354
"Line.19CS_1250"                              0.00003,      0.0     -0.000180991
"Line.19CS_288"                               0.00007,      0.0     -0.000146857
"Line.19CS_32"                                0.00002,      0.0     -0.000197987
"Line.19CS_850"                               0.00037,      0.0     0.000151155
"Line.19FR_1709"                              0.00000,      0.0     -0.000212921
"Line.19FR_250"                               0.00000,      0.0     -7.24983E-005
"Line.19FR_363"                               0.00000,      0.0     -0.00013764
"Line.19FR_801"                               0.00003,      0.0     -0.000180977
"Line.19FR_861"                               0.00000,      0.0     -0.000211421
"Line.21CF_1050"                              0.00000,      0.0     -0.00021606
"Line.21CF_1053"                              0.00000,      0.0     -0.000215709
"Line.21CF_1064"                              0.00000,      0.0     -0.00021378
"Line.21CF_1088"                              0.00000,      0.0     -7.21468E-005
"Line.21CF_1114"                              0.00000,      0.0     -0.000214655
"Line.21CF_1121"                              0.00000,      0.0     -0.000215585
"Line.21CF_1200"                              0.00000,      0.0     -7.19883E-005
"Line.21CF_1207"                              0.00000,      0.0     -0.000216397
"Line.21CF_1258"                              0.00000,      0.0     -7.15785E-005
"Line.21CF_1276"                              0.00000,      0.0     -0.000215982
"Line.21CF_1355"                              0.00000,      0.0     -7.24865E-005
"Line.21CF_1371"                              0.00000,      0.0     -0.000216018
"Line.21CF_1393"                              0.00000,      0.0     -0.000213993
"Line.21CF_1414"                              0.00000,      0.0     -7.20304E-005
"Line.21CF_1524"                              0.00000,      0.0     -0.000215822
"Line.21CF_1529"                              0.00000,      0.0     -7.14803E-005
"Line.21CF_1541"                              0.00000,      0.0     -7.26149E-005
"Line.21CF_1549"                              0.00000,      0.0     -0.000215365
"Line.21CF_1715"                              0.00000,      0.0     -0.000216863
"Line.21CF_1724"                              0.00000,      0.0     -0.000215434
"Line.21CF_1774"                              0.00000,      0.0     -0.000216182
"Line.21CF_1817"                              0.00000,      0.0     -7.23204E-005
"Line.21CF_279"                               0.00000,      0.0     -0.000214676
"Line.21CF_407"                               0.00000,      0.0     -0.000214693
"Line.21CF_539"                               0.00000,      0.0     -7.22681E-005
"Line.21CF_649"                               0.00000,      0.0     -0.000213464
"Line.21CF_669"                               0.00000,      0.0     -0.000142035
"Line.21CF_703"                               0.00000,      0.0     -7.23846E-005
"Line.21CF_756"                               0.00000,      0.0     -0.000215563
"Line.21CF_785"                               0.00000,      0.0     -0.000215115
"Line.21CF_787"                               0.00000,      0.0     -0.000216424
"Line.21CF_789"                               0.00000,      0.0     -7.22605E-005
"Line.21CF_854"                               0.00000,      0.0     -0.00014058
"Line.21CF_857"                               0.00000,      0.0     -0.000214105
"Line.21CF_858"                               0.00000,      0.0     -0.000214542
"Line.21CF_859"                               0.00000,      0.0     -0.000214928
"Line.21CF_979"                               0.00000,      0.0     -0.000214485
"Line.21CS_1397"                              0.00063,      0.0     0.000417743
"Line.21CS_1530"                              0.00095,     0.00     0.000730516
"Line.21CS_1648"                              0.00084,      0.0     0.000622825
"Line.21CS_555"                               0.00044,      0.0     0.000230215
"Line.21CS_720"                               0.00055,      0.0     0.000336484
"Line.21CS_728"                               0.00000,      0.0     -0.00021469
"Line.21FR_1033"                              0.00000,      0.0     -0.00021657
"Line.21FR_233"                               0.00000,      0.0     -0.000214749
"Line.21FR_238"                               0.00000,      0.0     -0.000215759
"Line.21FR_841"                               0.00000,      0.0     -0.000213157
"Line.21FR_856"                               0.00001,      0.0     -0.00021032
"Line.21RL_1415"                              0.00046,      0.0     0.000241188
"Line.21RL_1591"                              0.00000,      0.0     -0.000216571
"Line.21RL_237"                               0.00100,     0.00     0.00078674
"Line.21SA_579"                               0.00000,      0.0     -0.000215698
"Line.33CF_1115"                              0.00000,      0.0     -7.0915E-005
"Line.33CF_1488"                              0.00000,      0.0     -7.07876E-005
"Line.33CF_1489"                              0.00000,      0.0     -7.08303E-005
"Line.33CF_1490"                              0.00000,      0.0     -7.09105E-005
"Line.33CF_1596"                              0.00000,      0.0     -7.07299E-005
"Line.33CF_1759"                              0.00000,      0.0     -7.09636E-005
"Line.33CF_1769"                              0.00001,      0.0     -0.00020241
"Line.33CF_1810"                              0.00000,      0.0     -0.000211369
"Line.33CF_1884"                              0.00000,      0.0     -7.03065E-005
"Line.33CF_1885"                              0.00000,      0.0     -7.05206E-005
"Line.33CF_1886"                              0.00000,      0.0     -7.0683E-005
"Line.33CF_1916"                              0.00000,      0.0     -0.000210601
"Line.33CF_382"                               0.00000,      0.0     -7.02551E-005
"Line.33CF_749"                               0.00000,      0.0     -7.06553E-005
"Line.33CF_935"                               0.00000,      0.0     -0.000210211
"Line.33FR_1463"                              0.00000,      0.0     -0.000211978
"Line.33FR_383"                               0.00002,      0.0     -0.000190645
"Line.33FS_381"                               0.00001,      0.0     -6.33179E-005
"Line.3CF_1013"                               0.00000,      0.0     -0.000212451
"Line.3CF_1015"                               0.00000,      0.0     -0.000212634
"Line.3CF_1209"                               0.00000,      0.0     -0.000212603
"Line.3CF_1281"                               0.00000,      0.0     -0.000213637
"Line.3CF_1282"                               0.00000,      0.0     -0.0002136
"Line.3CF_1283"                               0.00000,      0.0     -7.13835E-005
"Line.3CF_1286"                               0.00000,      0.0     -7.10885E-005
"Line.3CF_1299"                               0.00000,      0.0     -0.0002132
"Line.3CF_1327"                               0.00000,      0.0     -7.13109E-005
"Line.3CF_1362"                               0.00000,      0.0     -7.10729E-005
"Line.3CF_1372"                               0.00000,      0.0     -7.10895E-005
"Line.3CF_1391"                               0.00000,      0.0     -0.000212572
"Line.3CF_1412"                               0.00000,      0.0     -7.12492E-005
"Line.3CF_1534"                               0.00000,      0.0     -0.000213131
"Line.3CF_1838"                               0.00000,      0.0     -7.05504E-005
"Line.3CF_287"                                0.00001,      0.0     -0.00020752
"Line.3CF_657"                                0.00000,      0.0     -0.000213592
"Line.3CF_762"                                0.00000,      0.0     -7.10658E-005
"Line.3CF_786"                                0.00000,      0.0     -7.0881E-005
"Line.3CF_790"                                0.00000,      0.0     -0.000212625
"Line.3CF_826"                                0.00000,      0.0     -0.000212651
"Line.3CF_969"                                0.00000,      0.0     -0.000213235
"Line.3CF_982"                                0.00000,      0.0     -7.13528E-005
"Line.3CS_1145"                               0.00012,      0.0     -9.42617E-005
"Line.3CS_283"                                0.00038,      0.0     0.000166615
"Line.3CS_822"                                0.00000,      0.0     -0.000213186
"Line.3FR_201"                                0.00000,      0.0     -0.000211477
"Line.3FR_284"                                0.00004,      0.0     -0.000174392
"Line.9CF_1017"                               0.00000,      0.0     -0.000214456
"Line.9CF_1018"                               0.00000,      0.0     -7.13859E-005
"Line.9CF_1021"                               0.00000,      0.0     -7.16024E-005
"Line.9CF_1032"                               0.00000,      0.0     -0.000217819
"Line.9CF_1051"                               0.00000,      0.0     -7.18966E-005
"Line.9CF_1052"                               0.00000,      0.0     -7.09317E-005
"Line.9CF_1086"                               0.00000,      0.0     -7.09447E-005
"Line.9CF_1090"                               0.00000,      0.0     -7.12314E-005
"Line.9CF_1133"                               0.00000,      0.0     -7.13592E-005
"Line.9CF_1213"                               0.00000,      0.0     -0.000213819
"Line.9CF_1225"                               0.00000,      0.0     -0.000215616
"Line.9CF_1229"                               0.00000,      0.0     -7.18615E-005
"Line.9CF_1294"                               0.00000,      0.0     -7.10111E-005
"Line.9CF_1302"                               0.00000,      0.0     -7.15476E-005
"Line.9CF_1303"                               0.00000,      0.0     -7.14282E-005
"Line.9CF_1310"                               0.00000,      0.0     -7.1435E-005
"Line.9CF_1316"                               0.00000,      0.0     -0.00021053
"Line.9CF_1317"                               0.00000,      0.0     -7.1302E-005
"Line.9CF_1318"                               0.00000,      0.0     -7.13167E-005
"Line.9CF_1459"                               0.00000,      0.0     -0.000219061
"Line.9CF_1502"                               0.00000,      0.0     -7.29868E-005
"Line.9CF_1539"                               0.00000,      0.0     -0.000217185
"Line.9CF_1542"                               0.00000,      0.0     -7.26663E-005
"Line.9CF_1601"                               0.00000,      0.0     -7.14451E-005
"Line.9CF_1649"                               0.00000,      0.0     -7.14523E-005
"Line.9CF_1660"                               0.00000,      0.0     -0.000213154
"Line.9CF_1670"                               0.00000,      0.0     -7.1675E-005
"Line.9CF_1676"                               0.00000,      0.0     -0.000218448
"Line.9CF_1688"                               0.00000,      0.0     -7.13864E-005
"Line.9CF_1743"                               0.00000,      0.0     -7.28499E-005
"Line.9CF_1868"                               0.00000,      0.0     -0.000214369
"Line.9CF_1905"                               0.00000,      0.0     -7.15432E-005
"Line.9CF_241"                                0.00000,      0.0     -0.000218649
"Line.9CF_254"                                0.00000,      0.0     -0.000140777
"Line.9CF_255"                                0.00000,      0.0     -7.10802E-005
"Line.9CF_267"                                0.00000,      0.0     -0.000143213
"Line.9CF_374"                                0.00000,      0.0     -7.15706E-005
"Line.9CF_377"                                0.00000,      0.0     -0.000212552
"Line.9CF_378"                                0.00000,      0.0     -7.09517E-005
"Line.9CF_380"                                0.00000,      0.0     -7.08494E-005
"Line.9CF_730"                                0.00008,      0.0     -0.000129381
"Line.9CF_899"                                0.00000,      0.0     -7.16199E-005
"Line.9CF_915"                                0.00000,      0.0     -7.22587E-005
"Line.9CF_961"                                0.00000,      0.0     -0.000217598
"Line.9CF_971"                                0.00000,      0.0     -7.15712E-005
"Line.9CF_974"                                0.00000,      0.0     -7.28133E-005
"Line.9CF_984"                                0.00000,      0.0     -7.09375E-005
"Line.9CS_1319"                               0.00011,      0.0     -0.000103192
"Line.9CS_1638"                               0.00133,     0.00     0.0011118
"Line.9CS_1771"                               0.00042,      0.0     0.0002068
"Line.9CS_240"                                0.00134,     0.00     0.00112205
"Line.9CS_257"                                0.00000,      0.0     -7.09849E-005
"Line.9DJ_74"                                 0.00000,      0.0     -0.00022132
"Line.9FR_1031"                               0.00000,      0.0     -7.10086E-005
"Line.9FR_268"                                0.00000,      0.0     -0.000216843
"Line.9FR_33"                                 0.00002,      0.0     -0.000197622
"Line.9FR_384"                                0.00000,      0.0     -7.0316E-005
"Line.9FR_799"                                0.00014,      0.0     -7.88073E-005
"Line.9FS_379"                                0.00000,      0.0     -6.63572E-005
"Line.9RL_1520"                               0.00342,     0.00     0.00320361
"Line.9SA_1521"                               0.00045,      0.0     0.000228137
"Line.SMT_100"                                0.00000,      0.0     -0.0544992
"Line.SMT_1009"                               0.00000,      0.0     -0.0174689
"Line.SMT_10123"                              0.00000,      0.0     -0.0250795
"Line.SMT_10162"                              0.00000,      0.0     -0.00097679
"Line.SMT_10216"                              0.00001,      0.0     -0.1079
"Line.SMT_10274"                              0.00001,      0.0     -0.0572988
"Line.SMT_10336"                              0.00000,      0.0     -0.02433
"Line.SMT_1035"                               0.00000,      0.0     -0.0187679
"Line.SMT_1036"                               0.00000,      0.0     -0.00230783
"Line.SMT_10368"                              0.00000,      0.0     -0.011718
"Line.SMT_1037"                               0.00000,      0.0     -0.028771
"Line.SMT_10491"                              0.00000,      0.0     -0.0189497
"Line.SMT_10829"                              0.00000,      0.0     -0.0112418
"Line.SMT_10850"                              0.00000,      0.0     -0.0615493
"Line.SMT_10979"                              0.00000,      0.0     -0.00179467
"Line.SMT_1104"                               0.00000,      0.0     -0.0450105
"Line.SMT_1105"                               0.00000,      0.0     -0.039586
"Line.SMT_11059"                              0.00010,      0.0     -0.0712915
"Line.SMT_1106"                               0.00000,      0.0     -0.0335457
"Line.SMT_11070"                              0.03419,     0.01     -0.0603909
"Line.SMT_11189"                              0.00000,      0.0     -0.00186393
"Line.SMT_11252"                              0.00000,      0.0     -0.0383836
"Line.SMT_11253"                              0.00000,      0.0     -0.0118319
"Line.SMT_11327"                              0.01990,     0.01     -0.0307163
"Line.SMT_11400"                              0.00137,     0.00     -0.0564746
"Line.SMT_11401"                              0.00000,      0.0     -0.0246738
"Line.SMT_1143"                               0.00000,      0.0     -0.00873983
"Line.SMT_11437"                              0.00000,      0.0     -0.0184688
"Line.SMT_11450"                              0.00000,      0.0     -0.0441959
"Line.SMT_11462"                              0.00119,     0.00     -0.0485276
"Line.SMT_11474"                              0.00000,      0.0     -0.0263083
"Line.SMT_11475"                              0.00000,      0.0     -0.0130661
"Line.SMT_11476"                              0.00000,      0.0     -0.0091287
"Line.SMT_11479"                              0.00002,      0.0     -0.0212581
"Line.SMT_11480"                              0.00057,      0.0     -0.060305
"Line.SMT_11484"                              0.00002,      0.0     -0.0196653
"Line.SMT_11486"                              0.00007,      0.0     -0.0290035
"Line.SMT_11487"                              0.00182,     0.00     -0.0744223
"Line.SMT_11493"                              0.00001,      0.0     -0.0340916
"Line.SMT_11497"                              0.00135,     0.00     -0.0588145
"Line.SMT_11524"                              0.00142,     0.00     -0.06426
"Line.SMT_11533"                              0.00000,      0.0     -0.0402302
"Line.SMT_11534"                              0.00000,      0.0     -0.0353294
"Line.SMT_11540"                              0.00000,      0.0     -0.0328449
"Line.SMT_11541"                              0.00000,      0.0     -0.0376972
"Line.SMT_11542"                              0.00000,      0.0     -0.0307978
"Line.SMT_11544"                              0.00002,      0.0     -0.0213806
"Line.SMT_11545"                              0.00009,      0.0     -0.0507382
"Line.SMT_11546"                              0.00006,      0.0     -0.0625652
"Line.SMT_11550"                              0.00005,      0.0     -0.0470582
"Line.SMT_11551"                              0.00003,      0.0     -0.0328945
"Line.SMT_11552"                              0.00001,      0.0     -0.0460554
"Line.SMT_11566"                              0.00002,      0.0     -0.0200484
"Line.SMT_11567"                              0.00003,      0.0     -0.043473
"Line.SMT_11570"                              0.00000,      0.0     -0.00797715
"Line.SMT_11583"                              0.00208,     0.00     -0.0850486
"Line.SMT_11604"                              0.00000,      0.0     -0.0457555
"Line.SMT_11605"                              0.00000,      0.0     -0.0522967
"Line.SMT_11622"                              0.00000,      0.0     -0.0258966
"Line.SMT_11650"                              0.00046,      0.0     -0.0500759
"Line.SMT_11656"                              0.00003,      0.0     -0.0289329
"Line.SMT_11717"                              0.00000,      0.0     -0.0296936
"Line.SMT_11718"                              0.00000,      0.0     -0.000781845
"Line.SMT_11719"                              0.00000,      0.0     -0.0362831
"Line.SMT_11724"                              0.00159,     0.00     -0.0484178
"Line.SMT_11725"                              0.00008,      0.0     -0.0804686
"Line.SMT_11726"                              0.00005,      0.0     -0.0515589
"Line.SMT_11727"                              0.00001,      0.0     -0.0620323
"Line.SMT_11728"                              0.00003,      0.0     -0.0318503
"Line.SMT_11742"                              0.00128,     0.00     -0.0657374
"Line.SMT_11748"                              0.00170,     0.00     -0.0697271
"Line.SMT_11749"                              0.00032,      0.0     -0.0484558
"Line.SMT_11750"                              0.00001,      0.0     -0.0112526
"Line.SMT_11754"                              0.00154,     0.00     -0.0575049
"Line.SMT_11756"                              0.00008,      0.0     -0.0296162
"Line.SMT_11757"                              0.00024,      0.0     -0.0375644
"Line.SMT_11759"                              0.00210,     0.00     -0.0912198
"Line.SMT_11760"                              0.00002,      0.0     -0.0737402
"Line.SMT_11763"                              0.00000,      0.0     -0.0120414
"Line.SMT_11786"                              0.00002,      0.0     -0.0325838
"Line.SMT_11787"                              0.00000,      0.0     -0.0126851
"Line.SMT_11788"                              0.00003,      0.0     -0.0311861
"Line.SMT_11791"                              0.00351,     0.00     -0.132084
"Line.SMT_11792"                              0.00034,      0.0     -0.128383
"Line.SMT_11801"                              0.00000,      0.0     -0.0238241
"Line.SMT_1181"                               0.00004,      0.0     -0.0469986
"Line.SMT_11820"                              0.00000,      0.0     -0.00299527
"Line.SMT_11861"                              0.00232,     0.00     -0.0884529
"Line.SMT_11862"                              0.00020,      0.0     -0.0331986
"Line.SMT_11863"                              0.00001,      0.0     -0.0199517
"Line.SMT_11864"                              0.00006,      0.0     -0.0560575
"Line.SMT_11874"                              0.00141,     0.00     -0.154152
"Line.SMT_11875"                              0.00002,      0.0     -0.0174077
"Line.SMT_11876"                              0.00002,      0.0     -0.0308549
"Line.SMT_11881"                              0.00021,      0.0     -0.0332219
"Line.SMT_11882"                              0.00000,      0.0     -0.000701438
"Line.SMT_11884"                              0.00000,      0.0     -0.0429166
"Line.SMT_11888"                              0.00000,      0.0     -0.039219
"Line.SMT_11889"                              0.00000,      0.0     -0.0333047
"Line.SMT_11907"                              0.00029,      0.0     -0.0446511
"Line.SMT_11913"                              0.00032,      0.0     -0.0506023
"Line.SMT_11914"                              0.00000,      0.0     -0.000873344
"Line.SMT_11920"                              0.00152,     0.00     -0.0572098
"Line.SMT_11921"                              0.00008,      0.0     -0.0219472
"Line.SMT_11944"                              0.00147,     0.00     -0.0821209
"Line.SMT_11958"                              0.00001,      0.0     -0.079222
"Line.SMT_11961"                              0.00164,     0.00     -0.0625788
"Line.SMT_11962"                              0.00001,      0.0     -0.0258523
"Line.SMT_11963"                              0.00002,      0.0     -0.0230354
"Line.SMT_11973"                              0.00002,      0.0     -0.0187578
"Line.SMT_11980"                              0.00017,      0.0     -0.0471153
"Line.SMT_11987"                              0.00002,      0.0     -0.0277383
"Line.SMT_11990"                              0.00000,      0.0     -0.00183253
"Line.SMT_12007"                              0.00000,      0.0     -0.0303389
"Line.SMT_12009"                              0.00000,      0.0     -0.0110072
"Line.SMT_12010"                              0.00221,     0.00     -0.0786802
"Line.SMT_12022"                              0.00002,      0.0     -0.0270959
"Line.SMT_12030"                              0.00283,     0.00     -0.115989
"Line.SMT_12044"                              0.00002,      0.0     -0.020988
"Line.SMT_1205"                               0.00000,      0.0     -0.0148836
"Line.SMT_12054"                              0.00001,      0.0     -0.119691
"Line.SMT_12056"                              0.00001,      0.0     -0.0219508
"Line.SMT_12090"                              0.00164,     0.00     -0.0623623
"Line.SMT_12104"                              0.00000,      0.0     -0.025352
"Line.SMT_12105"                              0.00000,      0.0     -0.0422831
"Line.SMT_12106"                              0.00000,      0.0     -0.0154414
"Line.SMT_12149"                              0.00000,      0.0     -0.000678489
"Line.SMT_12197"                              0.00004,      0.0     -0.0293425
"Line.SMT_12216"                              0.00208,     0.00     -0.0741101
"Line.SMT_12224"                              0.00004,      0.0     -0.0198496
"Line.SMT_12225"                              0.00005,      0.0     -0.0243009
"Line.SMT_12226"                              0.00160,     0.00     -0.0568576
"Line.SMT_12227"                              0.00008,      0.0     -0.0409714
"Line.SMT_12242"                              0.00004,      0.0     -0.0202406
"Line.SMT_12355"                              0.00008,      0.0     -0.0376983
"Line.SMT_12361"                              0.00191,     0.00     -0.0681653
"Line.SMT_12362"                              0.00013,      0.0     -0.0560005
"Line.SMT_12384"                              0.00005,      0.0     -0.0238924
"Line.SMT_12426"                              0.00000,      0.0     -0.0024289
"Line.SMT_12445"                              0.00005,      0.0     -0.0304961
"Line.SMT_12446"                              0.00007,      0.0     -0.0295129
"Line.SMT_12449"                              0.00000,      0.0     -0.0263565
"Line.SMT_12534"                              0.00001,      0.0     -0.040401
"Line.SMT_12535"                              0.00000,      0.0     -0.0169912
"Line.SMT_12536"                              0.00000,      0.0     -0.0119864
"Line.SMT_12618"                              0.00000,      0.0     -0.0353035
"Line.SMT_12652"                              0.00000,      0.0     -0.0214674
"Line.SMT_12666"                              0.00000,      0.0     -0.0215789
"Line.SMT_1271"                               0.00001,      0.0     -0.0107528
"Line.SMT_12725"                              0.00004,      0.0     -0.0222173
"Line.SMT_12781"                              0.00000,      0.0     -0.0220379
"Line.SMT_12798"                              0.00000,      0.0     -0.0268583
"Line.SMT_12800"                              0.00000,      0.0     -0.0435803
"Line.SMT_12810"                              0.00000,      0.0     -0.0193506
"Line.SMT_12826"                              0.00000,      0.0     -0.0411813
"Line.SMT_12827"                              0.00000,      0.0     -0.0169972
"Line.SMT_12828"                              0.00000,      0.0     -0.0366884
"Line.SMT_12835"                              0.00001,      0.0     -0.0341178
"Line.SMT_12896"                              0.00000,      0.0     -0.00476102
"Line.SMT_12897"                              0.00000,      0.0     -0.057813
"Line.SMT_12938"                              0.00000,      0.0     -0.0228162
"Line.SMT_12983"                              0.00000,      0.0     -0.0137297
"Line.SMT_13022"                              0.00000,      0.0     -0.00930575
"Line.SMT_13045"                              0.00001,      0.0     -0.0507086
"Line.SMT_13075"                              0.00000,      0.0     -0.0163773
"Line.SMT_13076"                              0.00000,      0.0     -0.0131231
"Line.SMT_13077"                              0.00000,      0.0     -0.0208764
"Line.SMT_13124"                              0.00000,      0.0     -0.0594675
"Line.SMT_13167"                              0.00001,      0.0     -0.0519055
"Line.SMT_13233"                              0.00001,      0.0     -0.0580608
"Line.SMT_13234"                              0.00000,      0.0     -0.000574089
"Line.SMT_13254"                              0.00000,      0.0     -0.0189008
"Line.SMT_13255"                              0.00000,      0.0     -0.0162761
"Line.SMT_13256"                              0.00000,      0.0     -0.0112438
"Line.SMT_13316"                              0.00000,      0.0     -0.0168996
"Line.SMT_13346"                              0.00000,      0.0     -0.0267454
"Line.SMT_1347"                               0.00000,      0.0     -0.0202377
"Line.SMT_13509"                              0.00000,      0.0     -0.0146923
"Line.SMT_13515"                              0.00046,      0.0     -0.00984618
"Line.SMT_13577"                              0.00000,      0.0     -0.0171376
"Line.SMT_13586"                              0.00000,      0.0     -0.0245843
"Line.SMT_13587"                              0.00000,      0.0     -0.015135
"Line.SMT_136"                                0.00004,      0.0     -0.0402178
"Line.SMT_14304"                              0.00004,      0.0     -0.0198242
"Line.SMT_1431"                               0.00001,      0.0     -0.0604782
"Line.SMT_14314"                              0.00000,      0.0     -0.0139706
"Line.SMT_1432"                               0.00000,      0.0     -0.0140242
"Line.SMT_1433"                               0.00000,      0.0     -0.00110025
"Line.SMT_14342"                              0.00003,      0.0     -0.0167978
"Line.SMT_1440"                               0.00000,      0.0     -0.0188552
"Line.SMT_1444"                               0.00000,      0.0     -0.00058315
"Line.SMT_14614"                              0.00001,      0.0     -0.0279283
"Line.SMT_1479"                               0.00000,      0.0     -0.0180364
"Line.SMT_14799"                              0.00000,      0.0     -0.0143351
"Line.SMT_14800"                              0.00000,      0.0     -0.0150199
"Line.SMT_14957"                              0.00001,      0.0     -0.0250506
"Line.SMT_1536"                               0.00000,      0.0     -0.00477958
"Line.SMT_1541"                               0.00000,      0.0     -0.0184163
"Line.SMT_1558"                               0.00000,      0.0     -0.0166871
"Line.SMT_15590"                              0.00000,      0.0     -0.0266325
...
"Transformer.REG_9_9710A"                     4.91961,     1.17     0.286506
"Transformer.REG_9_9710B"                     4.80067,     1.15     0.269867
"Transformer.REG_9_9710C"                     5.26008,     1.14     0.334424
"Transformer.TRF_13_1372A"                    0.03395,     9.45     0.00626417
"Line.RESIST_MTR_TRF_13_1372A"                0.00001,      0.0     -0.0002196
"Reactor.TRF_13_1372A_R"                      0.00000,      0.0     0
"Transformer.TRF_13_1373A"                    0.03837,    17.12     0.00135043
"Reactor.TRF_13_1373A_R"                      0.00000,      0.0     4.1359E-028
"Transformer.TRF_13_1374A"                    0.06216,    13.53     0.00229318
"Line.RESIST_MTR_TRF_13_1374A"                0.00002,      0.0     -0.000217811
"Reactor.TRF_13_1374A_R"                      0.00000,      0.0     -1.03398E-028
"Transformer.TRF_13_1730A"                    0.05953,     2.10     0.118904
"Line.RESIST_MTR_TRF_13_1730A"                0.00084,      0.0     -0.000219505
"Reactor.TRF_13_1730A_R"                      0.00000,      0.0     0
"Transformer.TRF_13_1775A"                    0.04816,     7.72     0.00334571
"Line.RESIST_MTR_TRF_13_1775A"                0.00004,      0.0     -0.000217448
"Reactor.TRF_13_1775A_R"                      0.00000,      0.0     1.29247E-029
"Transformer.TRF_13_2236A"                    0.04899,     5.66     0.0252328
"Line.RESIST_MTR_TRF_13_2236A"                0.00008,      0.0     -0.000219538
"Reactor.TRF_13_2236A_R"                      0.00000,      0.0     0
"Transformer.TRF_13_2538A"                    0.04823,    13.81     0.00137524
"Line.RESIST_MTR_TRF_13_2538A"                0.00001,      0.0     -0.000219608
"Reactor.TRF_13_2538A_R"                      0.00000,      0.0     0
"Transformer.TRF_13_2646A"                    0.04768,   100.00     3.57592E-005
"Line.RESIST_MTR_TRF_13_2646A"                0.00000,      0.0     -0.000217437
"Reactor.TRF_13_2646A_R"                      0.00000,      0.0     0
"Transformer.TRF_13_2976A"                    0.19036,     2.78     0.134405
"Reactor.TRF_13_2976A_R"                      0.00000,      0.0     2.35099E-041
"Transformer.TRF_13_3152A"                    0.04777,    15.42     0.000811266
"Line.RESIST_MTR_TRF_13_3152A"                0.00001,      0.0     -0.00021743
"Reactor.TRF_13_3152A_R"                      0.00000,      0.0     0
"Transformer.TRF_13_3202A"                    0.04821,     7.38     0.00376034
"Line.RESIST_MTR_TRF_13_3202A"                0.00004,      0.0     -0.000217484
"Reactor.TRF_13_3202A_R"                      0.00000,      0.0     2.06795E-028
"Transformer.TRF_13_3259A"                    0.04810,     7.45     0.00815426
"Line.RESIST_MTR_TRF_13_3259A"                0.00004,      0.0     -0.000217543
"Reactor.TRF_13_3259A_R"                      0.00000,      0.0     -2.58494E-029
"Transformer.TRF_13_3414A"                    0.04940,     5.00     0.00788335
"Line.RESIST_MTR_TRF_13_3414A"                0.00010,      0.0     -0.000217518
"Reactor.TRF_13_3414A_R"                      0.00000,      0.0     0
"Transformer.TRF_13_3648A"                    0.05213,     3.55     0.0172806
"Line.RESIST_MTR_TRF_13_3648A"                0.00022,      0.0     -0.000219516
"Reactor.TRF_13_3648A_R"                      0.00000,      0.0     -2.06795E-028
"Transformer.TRF_13_3673A"                    0.04777,    23.83     0.000343477
"Line.RESIST_MTR_TRF_13_3673A"                0.00000,      0.0     -0.000217794
"Reactor.TRF_13_3673A_R"                      0.00000,      0.0     0
"Transformer.TRF_13_3927A"                    0.04767,    39.37     0.000133604
"Line.RESIST_MTR_TRF_13_3927A"                0.00000,      0.0     -0.000217438
"Reactor.TRF_13_3927A_R"                      0.00000,      0.0     0
"Transformer.TRF_13_4014A"                    0.03372,    24.33     0.000312231
"Line.RESIST_MTR_TRF_13_4014A"                0.00000,      0.0     -0.000219575
"Reactor.TRF_13_4014A_R"                      0.00000,      0.0     0
"Transformer.TRF_13_4133A"                    0.06267,    14.83     0.00100571
"Line.RESIST_MTR_TRF_13_4133A"                0.00002,      0.0     -0.000219498
"Reactor.TRF_13_4133A_R"                      0.00000,      0.0     6.61744E-027
"Transformer.TRF_13_4284A"                    0.04821,    16.82     0.000689263
"Line.RESIST_MTR_TRF_13_4284A"                0.00001,      0.0     -0.000219574
"Reactor.TRF_13_4284A_R"                      0.00000,      0.0     0
"Transformer.TRF_13_4285A"                    0.04945,     5.03     0.00909813
"Line.RESIST_MTR_TRF_13_4285A"                0.00010,      0.0     -0.000219556
"Reactor.TRF_13_4285A_R"                      0.00000,      0.0     0
"Transformer.TRF_13_4318A"                    0.04784,    16.74     0.000690077
"Line.RESIST_MTR_TRF_13_4318A"                0.00001,      0.0     -0.000217869
"Reactor.TRF_13_4318A_R"                      0.00000,      0.0     1.29247E-029
"Transformer.TRF_13_4379A"                    0.06235,     8.12     0.00487707
"Line.RESIST_MTR_TRF_13_4379A"                0.00006,      0.0     -0.000217547
"Reactor.TRF_13_4379A_R"                      0.00000,      0.0     0
"Transformer.TRF_13_4381A"                    0.04768,   100.00     3.57592E-005
"Line.RESIST_MTR_TRF_13_4381A"                0.00000,      0.0     -0.000217437
"Reactor.TRF_13_4381A_R"                      0.00000,      0.0     6.46235E-030
"Transformer.TRF_13_4406A"                    0.06208,    12.51     0.00195002
"Line.RESIST_MTR_TRF_13_4406A"                0.00002,      0.0     -0.000217441
"Reactor.TRF_13_4406A_R"                      0.00000,      0.0     0
"Transformer.TRF_13_4578A"                    0.08687,     9.31     0.00506595
"Line.RESIST_MTR_TRF_13_4578A"                0.00009,      0.0     -0.000219541
"Reactor.TRF_13_4578A_R"                      0.00000,      0.0     0
"Transformer.TRF_13_4591A"                    0.06441,     4.46     0.011544
"Line.RESIST_MTR_TRF_13_4591A"                0.00021,      0.0     -0.000217761
"Reactor.TRF_13_4591A_R"                      0.00000,      0.0     5.16988E-029
"Transformer.TRF_13_4714A"                    0.08726,     7.26     0.00469385
"Line.RESIST_MTR_TRF_13_4714A"                0.00015,      0.0     -0.000219626
"Reactor.TRF_13_4714A_R"                      0.00000,      0.0     6.61744E-027
"Transformer.TRF_13_4737A"                    0.04853,     7.62     0.00910127
"Line.RESIST_MTR_TRF_13_4737A"                0.00004,      0.0     -0.000219591
"Reactor.TRF_13_4737A_R"                      0.00000,      0.0     0
"Transformer.TRF_13_4861A"                    0.04816,    21.57     0.000420967
"Line.RESIST_MTR_TRF_13_4861A"                0.00000,      0.0     -0.000219507
"Reactor.TRF_13_4861A_R"                      0.00000,      0.0     0
"Transformer.TRF_13_4939A"                    0.04770,    35.11     0.000164454
"Line.RESIST_MTR_TRF_13_4939A"                0.00000,      0.0     -0.000217568
"Reactor.TRF_13_4939A_R"                      0.00000,      0.0     0
"Transformer.TRF_13_4985A"                    0.05618,     2.61     0.0390919
"Line.RESIST_MTR_TRF_13_4985A"                0.00048,      0.0     -0.000219501
"Reactor.TRF_13_4985A_R"                      0.00000,      0.0     0
"Transformer.TRF_13_5125A"                    0.04890,     6.02     0.00742953
"Line.RESIST_MTR_TRF_13_5125A"                0.00007,      0.0     -0.000219494
"Reactor.TRF_13_5125A_R"                      0.00000,      0.0     0
"Transformer.TRF_13_5418A"                    0.03453,     6.46     0.00485064
"Line.RESIST_MTR_TRF_13_5418A"                0.00003,      0.0     -0.000217865
"Reactor.TRF_13_5418A_R"                      0.00000,      0.0     0
"Transformer.TRF_13_5551A"                    0.06212,    17.56     0.00223478
"Line.RESIST_MTR_TRF_13_5551A"                0.00001,      0.0     -0.000217788
"Reactor.TRF_13_5551A_R"                      0.00000,      0.0     -1.03398E-028
"Transformer.TRF_13_5637A"                    0.15365,    31.11     0.000665749
"Reactor.TRF_13_5637A_R"                      0.00000,      0.0     4.70198E-041
"Transformer.TRF_13_5663A"                    0.04816,    19.03     0.000571094
"Line.RESIST_MTR_TRF_13_5663A"                0.00001,      0.0     -0.000219538
"Reactor.TRF_13_5663A_R"                      0.00000,      0.0     -4.1359E-028
"Transformer.TRF_13_5758A"                    0.15421,    13.41     0.00366245
"Reactor.TRF_13_5758A_R"                      0.00000,      0.0     -1.83671E-043
"Transformer.TRF_13_5887A"                    0.04818,    23.57     0.000354088
"Line.RESIST_MTR_TRF_13_5887A"                0.00000,      0.0     -0.000219646
"Reactor.TRF_13_5887A_R"                      0.00000,      0.0     -8.27181E-028
"Transformer.TRF_13_5888A"                    0.06211,   100.00     4.75056E-005
"Line.RESIST_MTR_TRF_13_5888A"                0.00000,      0.0     -0.000217874
"Reactor.TRF_13_5888A_R"                      0.00000,      0.0     0
"Transformer.TRF_13_5963A"                    0.04803,     7.89     0.00646855
"Line.RESIST_MTR_TRF_13_5963A"                0.00004,      0.0     -0.000217465
"Reactor.TRF_13_5963A_R"                      0.00000,      0.0     0
"Transformer.TRF_13_6023A"                    0.04870,     8.24     0.00293679
"Line.RESIST_MTR_TRF_13_6023A"                0.00004,      0.0     -0.000219639
"Reactor.TRF_13_6023A_R"                      0.00000,      0.0     0
"Transformer.TRF_13_6077A"                    0.06273,    11.87     0.00551936
"Line.RESIST_MTR_TRF_13_6077A"                0.00003,      0.0     -0.000219604
"Reactor.TRF_13_6077A_R"                      0.00000,      0.0     0
"Transformer.TRF_13_6209A"                    0.04818,    17.31     0.000868819
"Line.RESIST_MTR_TRF_13_6209A"                0.00001,      0.0     -0.000219551
"Reactor.TRF_13_6209A_R"                      0.00000,      0.0     -4.1359E-028
"Transformer.TRF_13_6262A"                    0.09123,   100.00     5.24417E-005
"Reactor.TRF_13_6262A_R"                      0.00000,      0.0     0
"Transformer.TRF_13_6299A"                    0.08756,     5.54     0.0335153
"Line.RESIST_MTR_TRF_13_6299A"                0.00026,      0.0     -0.000219523
"Reactor.TRF_13_6299A_R"                      0.00000,      0.0     0
"Transformer.TRF_13_6342A"                    0.08682,    10.15     0.00407603
"Line.RESIST_MTR_TRF_13_6342A"                0.00007,      0.0     -0.000219533
"Reactor.TRF_13_6342A_R"                      0.00000,      0.0     0
"Transformer.TRF_13_6345A"                    0.09126,   100.00     5.24589E-005
"Reactor.TRF_13_6345A_R"                      0.00000,      0.0     -6.46235E-030
"Transformer.TRF_13_6383A"                    0.15371,   100.00     8.1393E-005
"Reactor.TRF_13_6383A_R"                      0.00000,      0.0     0
"Transformer.TRF_13_6421A"                    0.04817,   100.00     3.6123E-005
"Line.RESIST_MTR_TRF_13_6421A"                0.00000,      0.0     -0.000219649
"Reactor.TRF_13_6421A_R"                      0.00000,      0.0     -4.1359E-028
"Transformer.TRF_13_6459A"                    0.15371,   100.00     8.1393E-005
"Reactor.TRF_13_6459A_R"                      0.00000,      0.0     2.35099E-041
"Transformer.TRF_13_795A"                     0.04823,    15.71     0.000789
"Line.RESIST_MTR_TRF_13_795A"                 0.00001,      0.0     -0.000219546
"Reactor.TRF_13_795A_R"                       0.00000,      0.0     -2.64698E-026
"Transformer.TRF_13_799A"                     0.08672,    17.09     0.00277666
"Line.RESIST_MTR_TRF_13_799A"                 0.00003,      0.0     -0.000219602
"Reactor.TRF_13_799A_R"                       0.00000,      0.0     0
"Transformer.TRF_13_881A"                     0.05211,     2.82     0.0947436
"Line.RESIST_MTR_TRF_13_881A"                 0.00036,      0.0     -0.000217764
"Reactor.TRF_13_881A_R"                       0.00000,      0.0     0
"Transformer.TRF_13_944A"                     0.08607,     9.58     0.00531366
"Line.RESIST_MTR_TRF_13_944A"                 0.00008,      0.0     -0.000217576
"Reactor.TRF_13_944A_R"                       0.00000,      0.0     0
"Transformer.TRF_13_945A"                     0.06209,    12.70     0.00229506
"Line.RESIST_MTR_TRF_13_945A"                 0.00002,      0.0     -0.000217514
"Reactor.TRF_13_945A_R"                       0.00000,      0.0     -5.16988E-029
"Transformer.TRF_13_946A"                     0.04769,    38.22     0.000140812
"Line.RESIST_MTR_TRF_13_946A"                 0.00000,      0.0     -0.000217538
"Reactor.TRF_13_946A_R"                       0.00000,      0.0     0
"Transformer.TRF_13_947A"                     0.04814,   100.00     3.61002E-005
"Line.RESIST_MTR_TRF_13_947A"                 0.00000,      0.0     -0.00021951
"Reactor.TRF_13_947A_R"                       0.00000,      0.0     0
"Transformer.TRF_13_948A"                     0.04772,    21.85     0.00117452
"Line.RESIST_MTR_TRF_13_948A"                 0.00000,      0.0     -0.000217557
"Reactor.TRF_13_948A_R"                       0.00000,      0.0     0
"Transformer.TRF_13_949A"                     0.06220,    10.03     0.00422931
"Line.RESIST_MTR_TRF_13_949A"                 0.00004,      0.0     -0.000217555
"Reactor.TRF_13_949A_R"                       0.00000,      0.0     0
"Transformer.TRF_13_950A"                     0.07029,     2.40     0.0544186
"Line.RESIST_MTR_TRF_13_950A"                 0.00089,      0.0     -0.0002175
"Reactor.TRF_13_950A_R"                       0.00000,      0.0     0
"Transformer.TRF_13_952A"                     0.04798,     8.55     0.00581736
"Line.RESIST_MTR_TRF_13_952A"                 0.00003,      0.0     -0.000217524
"Reactor.TRF_13_952A_R"                       0.00000,      0.0     0
"Transformer.TRF_13_985A"                     0.03373,     8.43     0.00355442
"Line.RESIST_MTR_TRF_13_985A"                 0.00002,      0.0     -0.00021747
"Reactor.TRF_13_985A_R"                       0.00000,      0.0     -2.06795E-028
"Transformer.TRF_13_986A"                     0.06201,    17.87     0.000911312
"Line.RESIST_MTR_TRF_13_986A"                 0.00001,      0.0     -0.000217449
"Reactor.TRF_13_986A_R"                       0.00000,      0.0     0
"Transformer.TRF_13_987A"                     0.05112,     3.73     0.0151672
"Line.RESIST_MTR_TRF_13_987A"                 0.00019,      0.0     -0.000217416
"Reactor.TRF_13_987A_R"                       0.00000,      0.0     0
"Transformer.TRF_13_988A"                     0.06263,     7.00     0.00431803
"Line.RESIST_MTR_TRF_13_988A"                 0.00008,      0.0     -0.00021742
"Reactor.TRF_13_988A_R"                       0.00000,      0.0     0
"Transformer.TRF_13_989A"                     0.04772,    19.23     0.000522107
"Line.RESIST_MTR_TRF_13_989A"                 0.00001,      0.0     -0.000217433
"Reactor.TRF_13_989A_R"                       0.00000,      0.0     0
"Transformer.TRF_19_1058A"                    0.04097,     2.65     0.0192046
"Reactor.TRF_19_1058A_R"                      0.00000,      0.0     2.06795E-028
"Transformer.TRF_19_1251A"                    0.03849,     7.97     0.00746831
"Reactor.TRF_19_1251A_R"                      0.00000,      0.0     0
"Transformer.TRF_19_1252A"                    0.04919,     4.54     0.0147863
"Line.RESIST_MTR_TRF_19_1252A"                0.00012,      0.0     -0.000217682
"Reactor.TRF_19_1252A_R"                      0.00000,      0.0     0
"Transformer.TRF_19_1266A"                    0.04842,     8.25     0.00350677
"Line.RESIST_MTR_TRF_19_1266A"                0.00003,      0.0     -0.000219179
"Reactor.TRF_19_1266A_R"                      0.00000,      0.0     0
"Transformer.TRF_19_1267A"                    0.06327,     6.08     0.00920491
"Line.RESIST_MTR_TRF_19_1267A"                0.00011,      0.0     -0.000219462
"Reactor.TRF_19_1267A_R"                      0.00000,      0.0     4.1359E-028
"Transformer.TRF_19_1341A"                    0.03522,     6.59     0.00476233
"Line.RESIST_MTR_TRF_19_1341A"                0.00003,      0.0     -0.000222484
"Reactor.TRF_19_1341A_R"                      0.00000,      0.0     -5.16988E-029
"Transformer.TRF_19_1342A"                    0.03378,    13.92     0.000980421
"Line.RESIST_MTR_TRF_19_1342A"                0.00001,      0.0     -0.000219166
"Reactor.TRF_19_1342A_R"                      0.00000,      0.0     0
"Transformer.TRF_19_1393A"                    0.15970,     5.53     0.0240734
"Reactor.TRF_19_1393A_R"                      0.00000,      0.0     0
"Transformer.TRF_19_1441A"                    0.04855,    10.02     0.00196881
"Line.RESIST_MTR_TRF_19_1441A"                0.00002,      0.0     -0.000219922
"Reactor.TRF_19_1441A_R"                      0.00000,      0.0     0
"Transformer.TRF_19_145A"                     0.21996,     4.91     0.0390684
"Reactor.TRF_19_145A_R"                       0.00000,      0.0     2.58494E-029
"Transformer.TRF_19_1455A"                    0.06473,     7.51     0.00410008
"Line.RESIST_MTR_TRF_19_1455A"                0.00007,      0.0     -0.000224649
"Reactor.TRF_19_1455A_R"                      0.00000,      0.0     0
"Transformer.TRF_19_1457A"                    0.17244,     3.57     0.0698266
"Reactor.TRF_19_1457A_R"                      0.00000,      0.0     2.06795E-028
"Transformer.TRF_19_146A"                     0.75449,     8.03     0.0969228
"Reactor.TRF_19_146A_R"                       0.00000,      0.0     0
"Transformer.TRF_19_147A"                     0.72389,    15.10     0.0302184
"Reactor.TRF_19_147A_R"                       0.00000,      0.0     0
"Transformer.TRF_19_1512A"                    0.04207,     2.82     0.0392261
"Line.RESIST_MTR_TRF_19_1512A"                0.00023,      0.0     -0.000223357
"Reactor.TRF_19_1512A_R"                      0.00000,      0.0     0
"Transformer.TRF_19_1685A"                    0.06315,     2.08     0.0914727
"Line.RESIST_MTR_TRF_19_1685A"                0.00096,     0.03     -0.000219888
"Reactor.TRF_19_1685A_R"                      0.00000,      0.0     0
"Transformer.TRF_19_1875A"                    0.09418,     7.05     0.0101634
"Reactor.TRF_19_1875A_R"                      0.00000,      0.0     -6.46235E-030
"Transformer.TRF_19_1899A"                    0.22245,     4.46     0.0685018
"Reactor.TRF_19_1899A_R"                      0.00000,      0.0     4.1359E-028
"Transformer.TRF_19_1900A"                    0.06373,     4.90     0.00905063
"Line.RESIST_MTR_TRF_19_1900A"                0.00017,      0.0     -0.000217638
"Reactor.TRF_19_1900A_R"                      0.00000,      0.0     -2.06795E-028
"Transformer.TRF_19_2006A"                    0.03421,    17.91     0.000596571
"Line.RESIST_MTR_TRF_19_2006A"                0.00000,      0.0     -0.000222516
"Reactor.TRF_19_2006A_R"                      0.00000,      0.0     0
"Transformer.TRF_19_2091A"                    0.16217,     2.69     0.209366
"Reactor.TRF_19_2091A_R"                      0.00000,      0.0     0
"Transformer.TRF_19_2092A"                    0.04690,     2.30     0.112332
"Line.RESIST_MTR_TRF_19_2092A"                0.00044,      0.0     -0.000219761
"Reactor.TRF_19_2092A_R"                      0.00000,      0.0     0
"Transformer.TRF_19_2097A"                    0.04983,     6.17     0.00512236
"Line.RESIST_MTR_TRF_19_2097A"                0.00007,      0.0     -0.000222632
"Reactor.TRF_19_2097A_R"                      0.00000,      0.0     4.1359E-028
"Transformer.TRF_19_2098A"                    0.06466,     6.33     0.0108211
"Line.RESIST_MTR_TRF_19_2098A"                0.00010,      0.0     -0.000224637
"Reactor.TRF_19_2098A_R"                      0.00000,      0.0     0
"Transformer.TRF_19_2104A"                    0.03378,   100.00     2.62E-005
"Line.RESIST_MTR_TRF_19_2104A"                0.00000,      0.0     -0.000220064
"Reactor.TRF_19_2104A_R"                      0.00000,      0.0     0
"Transformer.TRF_19_2105A"                    0.04906,     5.11     0.0185641
"Line.RESIST_MTR_TRF_19_2105A"                0.00009,      0.0     -0.00021915
"Reactor.TRF_19_2105A_R"                      0.00000,      0.0     0
"Transformer.TRF_19_2116A"                    0.03411,     7.07     0.0153401
"Line.RESIST_MTR_TRF_19_2116A"                0.00002,      0.0     -0.000218757
"Reactor.TRF_19_2116A_R"                      0.00000,      0.0     0
"Transformer.TRF_19_2117A"                    0.04842,    11.29     0.00550516
"Line.RESIST_MTR_TRF_19_2117A"                0.00002,      0.0     -0.000220116
"Reactor.TRF_19_2117A_R"                      0.00000,      0.0     0
"Transformer.TRF_19_2123A"                    0.03368,   100.00     2.61239E-005
"Line.RESIST_MTR_TRF_19_2123A"                0.00000,      0.0     -0.000219425
"Reactor.TRF_19_2123A_R"                      0.00000,      0.0     2.06795E-028
"Transformer.TRF_19_2130A"                    0.16516,     4.09     0.0462481
"Reactor.TRF_19_2130A_R"                      0.00000,      0.0     0
"Transformer.TRF_19_2132A"                    0.03421,   100.00     2.65361E-005
"Line.RESIST_MTR_TRF_19_2132A"                0.00000,      0.0     -0.000222887
"Reactor.TRF_19_2132A_R"                      0.00000,      0.0     1.03398E-028
"Transformer.TRF_19_2219A"                    0.04968,     5.72     0.00636588
"Line.RESIST_MTR_TRF_19_2219A"                0.00008,      0.0     -0.000220351
"Reactor.TRF_19_2219A_R"                      0.00000,      0.0     0
"Transformer.TRF_19_2261A"                    0.03552,     4.98     0.00870219
"Line.RESIST_MTR_TRF_19_2261A"                0.00005,      0.0     -0.000217578
"Reactor.TRF_19_2261A_R"                      0.00000,      0.0     4.1359E-028
"Transformer.TRF_19_2413A"                    0.22711,     3.36     0.0865424
"Reactor.TRF_19_2413A_R"                      0.00000,      0.0     -4.70198E-041
"Transformer.TRF_19_2416A"                    0.04811,    57.50     9.48792E-005
"Line.RESIST_MTR_TRF_19_2416A"                0.00000,      0.0     -0.000219412
"Reactor.TRF_19_2416A_R"                      0.00000,      0.0     0
"Transformer.TRF_19_2437A"                    0.09109,    28.91     0.000537905
"Reactor.TRF_19_2437A_R"                      0.00000,      0.0     9.18355E-044
"Transformer.TRF_19_2568A"                    0.09225,    50.65     0.000178432
"Reactor.TRF_19_2568A_R"                      0.00000,      0.0     0
"Transformer.TRF_19_2632A"                    0.07386,     8.34     0.00725183
"Reactor.TRF_19_2632A_R"                      0.00000,      0.0     1.65436E-027
"Transformer.TRF_19_2700A"                    0.09769,     6.02     0.0204786
"Reactor.TRF_19_2700A_R"                      0.00000,      0.0     0
"Transformer.TRF_19_2865A"                    0.06767,     3.41     0.0222012
"Line.RESIST_MTR_TRF_19_2865A"                0.00040,      0.0     -0.000220528
"Reactor.TRF_19_2865A_R"                      0.00000,      0.0     -6.61744E-027
"Transformer.TRF_19_2889A"                    0.09266,     2.60     0.0555517
"Line.RESIST_MTR_TRF_19_2889A"                0.00130,     0.04     -0.000220016
"Reactor.TRF_19_2889A_R"                      0.00000,      0.0     0
"Transformer.TRF_19_2915A"                    0.09478,    11.25     0.00515766
"Reactor.TRF_19_2915A_R"                      0.00000,      0.0     0
"Transformer.TRF_19_2923A"                    0.04784,    13.42     0.00107254
"Line.RESIST_MTR_TRF_19_2923A"                0.00001,      0.0     -0.00021755
"Reactor.TRF_19_2923A_R"                      0.00000,      0.0     -5.16988E-029
"Transformer.TRF_19_2959A"                    0.09491,     9.11     0.00593907
"Reactor.TRF_19_2959A_R"                      0.00000,      0.0     0
"Transformer.TRF_19_2989A"                    0.06277,    10.14     0.00233442
"Line.RESIST_MTR_TRF_19_2989A"                0.00004,      0.0     -0.000219468
"Reactor.TRF_19_2989A_R"                      0.00000,      0.0     0
"Transformer.TRF_19_3016A"                    0.10604,     3.86     0.0423958
"Reactor.TRF_19_3016A_R"                      0.00000,      0.0     0
"Transformer.TRF_19_3107A"                    0.06518,     3.60     0.0261377
"Line.RESIST_MTR_TRF_19_3107A"                0.00034,      0.0     -0.000219482
"Reactor.TRF_19_3107A_R"                      0.00000,      0.0     8.27181E-028
"Transformer.TRF_19_3239A"                    0.10431,     3.83     0.042209
"Reactor.TRF_19_3239A_R"                      0.00000,      0.0     -4.70198E-041
"Transformer.TRF_19_3240A"                    0.09379,     7.00     0.0100914
"Reactor.TRF_19_3240A_R"                      0.00000,      0.0     0
"Transformer.TRF_19_3273A"                    0.10899,     3.49     0.0556965
"Reactor.TRF_19_3273A_R"                      0.00000,      0.0     0
"Transformer.TRF_19_3424A"                    0.04815,    13.20     0.00155483
"Line.RESIST_MTR_TRF_19_3424A"                0.00001,      0.0     -0.000219187
"Reactor.TRF_19_3424A_R"                      0.00000,      0.0     0
"Transformer.TRF_19_3474A"                    0.04882,    34.47     0.000174236
"Line.RESIST_MTR_TRF_19_3474A"                0.00000,      0.0     -0.000222648
"Reactor.TRF_19_3474A_R"                      0.00000,      0.0     0
"Transformer.TRF_19_3481A"                    0.04833,     9.42     0.00462753
"Line.RESIST_MTR_TRF_19_3481A"                0.00003,      0.0     -0.000219403
"Reactor.TRF_19_3481A_R"                      0.00000,      0.0     0
"Transformer.TRF_19_3482A"                    0.03340,   100.00     2.59087E-005
"Line.RESIST_MTR_TRF_19_3482A"                0.00000,      0.0     -0.000217617
"Reactor.TRF_19_3482A_R"                      0.00000,      0.0     6.46235E-030
"Transformer.TRF_19_3483A"                    0.04828,    11.43     0.00149721
"Line.RESIST_MTR_TRF_19_3483A"                0.00002,      0.0     -0.00021916
"Reactor.TRF_19_3483A_R"                      0.00000,      0.0     0
"Transformer.TRF_19_3512A"                    0.04925,    56.83     7.48364E-005
"Line.RESIST_MTR_TRF_19_3512A"                0.00000,      0.0     -0.000224606
"Reactor.TRF_19_3512A_R"                      0.00000,      0.0     0
"Transformer.TRF_19_3597A"                    0.38679,     3.21     0.849692
"Reactor.TRF_19_3597A_R"                      0.00000,      0.0     0
...